FoamFile
{
    version     2.0;
    format      ascii;
    class       dictionary;
    location    "system";
    object      blockMeshDict;
}

vertices
(
    (-2.0 5.678908345800274 0.0) // Vertex 0
    (-1.8477590650225735 5.730251865112642 -0.7653668647301796) // Vertex 1
    (-1.4142135623730951 5.852349955359813 -1.4142135623730951) // Vertex 2
    (-0.7653668647301797 5.971952240463171 -1.8477590650225735) // Vertex 3
    (-1.2246467991473532e-16 6.020797289396148 -2.0) // Vertex 4
    (0.7653668647301795 5.971952240463171 -1.8477590650225735) // Vertex 5
    (1.414213562373095 5.852349955359813 -1.4142135623730951) // Vertex 6
    (1.9138806714644176 5.708507753817535 -0.5805693545089248) // Vertex 7
    (2.0 5.678908345800274 -2.4492935982947064e-16) // Vertex 8
    (1.6064150629612899 5.802536569940001 1.1913986089848665) // Vertex 9
    (1.3431179096940373 5.869074397267351 1.4819022507099178) // Vertex 10
    (0.6737797067844399 5.98297759537218 1.8830881303660416) // Vertex 11
    (-0.09813534865483532 6.019997462901824 1.9975909124103448) // Vertex 12
    (-0.8551101868605643 5.959763969179257 1.8079785862468867) // Vertex 13
    (-1.4819022507099178 5.835577582325581 1.3431179096940373) // Vertex 14
    (-1.8830881303660416 5.718739292298131 0.67377970678444) // Vertex 15
    (-3.5 4.898979485566356 -0.0) // Vertex 16
    (-3.2335783637895035 5.078776522473931 -1.3393920132778143) // Vertex 17
    (-2.4748737341529163 5.488624600025037 -2.4748737341529163) // Vertex 18
    (-1.3393920132778145 5.869925811691967 -3.2335783637895035) // Vertex 19
    (-2.143131898507868e-16 6.020797289396148 -3.5) // Vertex 20
    (1.339392013277814 5.869925811691967 -3.2335783637895035) // Vertex 21
    (2.474873734152916 5.488624600025037 -2.4748737341529163) // Vertex 22
    (3.2335783637895035 5.078776522473931 -1.3393920132778145) // Vertex 23
    (3.5 4.898979485566356 -4.286263797015736e-16) // Vertex 24
    (3.4170360249197667 4.9572033249000915 0.7575386487833603) // Vertex 25
    (2.474873734152917 5.488624600025037 2.474873734152916) // Vertex 26
    (1.339392013277816 5.869925811691967 3.233578363789503) // Vertex 27
    (6.429395695523604e-16 6.020797289396148 3.5) // Vertex 28
    (-1.339392013277815 5.869925811691967 3.233578363789503) // Vertex 29
    (-2.474873734152916 5.488624600025037 2.474873734152917) // Vertex 30
    (-3.233578363789503 5.078776522473931 1.3393920132778163) // Vertex 31
    (-4.5 4.0 -0.0) // Vertex 32
    (-4.5 4.0 -1.3393920132778143) // Vertex 33
    (-4.5 4.0 -2.4748737341529163) // Vertex 34
    (-4.5 4.0 -4.5) // Vertex 35
    (-2.4748737341529163 5.488624600025037 -4.5) // Vertex 36
    (-1.3393920132778145 5.869925811691967 -4.5) // Vertex 37
    (-2.143131898507868e-16 6.020797289396148 -4.5) // Vertex 38
    (1.339392013277814 5.869925811691967 -4.5) // Vertex 39
    (2.474873734152916 5.488624600025037 -4.5) // Vertex 40
    (4.5 4.0 -4.5) // Vertex 41
    (4.5 4.0 -2.4748737341529163) // Vertex 42
    (4.5 4.0 -1.3393920132778145) // Vertex 43
    (4.5 4.0 -4.286263797015736e-16) // Vertex 44
    (4.5 4.0 0.7575386487833603) // Vertex 45
    (4.5 4.0 2.474873734152916) // Vertex 46
    (4.5 4.0 4.5) // Vertex 47
    (2.474873734152917 5.488624600025037 4.5) // Vertex 48
    (1.339392013277816 5.869925811691967 4.5) // Vertex 49
    (6.429395695523604e-16 6.020797289396148 4.5) // Vertex 50
    (-1.339392013277815 5.869925811691967 4.5) // Vertex 51
    (-2.474873734152916 5.488624600025037 4.5) // Vertex 52
    (-4.5 4.0 4.5) // Vertex 53
    (-4.5 4.0 2.474873734152917) // Vertex 54
    (-4.5 4.0 1.3393920132778163) // Vertex 55
    (-2.0 6.543097903708516 0.0) // Vertex 56
    (-1.8477590650225735 6.587709512049062 -0.7653668647301796) // Vertex 57
    (-1.4142135623730951 6.694186296893356 -1.4142135623730951) // Vertex 58
    (-0.7653668647301797 6.798995789077081 -1.8477590650225735) // Vertex 59
    (-1.2246467991473532e-16 6.841939065609601 -2.0) // Vertex 60
    (0.7653668647301795 6.798995789077081 -1.8477590650225735) // Vertex 61
    (1.414213562373095 6.694186296893356 -1.4142135623730951) // Vertex 62
    (1.9138806714644176 6.568804377731894 -0.5805693545089248) // Vertex 63
    (2.0 6.543097903708516 -2.4492935982947064e-16) // Vertex 64
    (1.6064150629612899 6.650681229994854 1.1913986089848665) // Vertex 65
    (1.3431179096940373 6.708812447682071 1.4819022507099178) // Vertex 66
    (0.6737797067844399 6.808682037240413 1.8830881303660416) // Vertex 67
    (-0.09813534865483532 6.8412352415963 1.9975909124103448) // Vertex 68
    (-0.8551101868605643 6.7882926237635095 1.8079785862468867) // Vertex 69
    (-1.4819022507099178 6.679528119325171 1.3431179096940373) // Vertex 70
    (-1.8830881303660416 6.57769787013582 0.67377970678444) // Vertex 71
    (-3.5 5.878956555164767 -0.0) // Vertex 72
    (-3.2335783637895035 6.029602071674978 -1.3393920132778143) // Vertex 73
    (-2.4748737341529163 6.378646422048708 -2.4748737341529163) // Vertex 74
    (-1.3393920132778145 6.7095573037483165 -3.2335783637895035) // Vertex 75
    (-2.143131898507868e-16 6.841939065609601 -3.5) // Vertex 76
    (1.339392013277814 6.7095573037483165 -3.2335783637895035) // Vertex 77
    (2.474873734152916 6.378646422048708 -2.4748737341529163) // Vertex 78
    (3.2335783637895035 6.029602071674978 -1.3393920132778145) // Vertex 79
    (3.5 5.878956555164767 -4.286263797015736e-16) // Vertex 80
    (3.4170360249197667 5.927562313625669 0.7575386487833603) // Vertex 81
    (2.474873734152917 6.378646422048708 2.474873734152916) // Vertex 82
    (1.339392013277816 6.7095573037483165 3.233578363789503) // Vertex 83
    (6.429395695523604e-16 6.841939065609601 3.5) // Vertex 84
    (-1.339392013277815 6.7095573037483165 3.233578363789503) // Vertex 85
    (-2.474873734152916 6.378646422048708 2.474873734152917) // Vertex 86
    (-3.233578363789503 6.029602071674978 1.3393920132778163) // Vertex 87
    (-4.5 5.153846153846153 -0.0) // Vertex 88
    (-4.5 5.153846153846153 -1.3393920132778143) // Vertex 89
    (-4.5 5.153846153846153 -2.4748737341529163) // Vertex 90
    (-4.5 5.153846153846153 -4.5) // Vertex 91
    (-2.4748737341529163 6.378646422048708 -4.5) // Vertex 92
    (-1.3393920132778145 6.7095573037483165 -4.5) // Vertex 93
    (-2.143131898507868e-16 6.841939065609601 -4.5) // Vertex 94
    (1.339392013277814 6.7095573037483165 -4.5) // Vertex 95
    (2.474873734152916 6.378646422048708 -4.5) // Vertex 96
    (4.5 5.153846153846153 -4.5) // Vertex 97
    (4.5 5.153846153846153 -2.4748737341529163) // Vertex 98
    (4.5 5.153846153846153 -1.3393920132778145) // Vertex 99
    (4.5 5.153846153846153 -4.286263797015736e-16) // Vertex 100
    (4.5 5.153846153846153 0.7575386487833603) // Vertex 101
    (4.5 5.153846153846153 2.474873734152916) // Vertex 102
    (4.5 5.153846153846153 4.5) // Vertex 103
    (2.474873734152917 6.378646422048708 4.5) // Vertex 104
    (1.339392013277816 6.7095573037483165 4.5) // Vertex 105
    (6.429395695523604e-16 6.841939065609601 4.5) // Vertex 106
    (-1.339392013277815 6.7095573037483165 4.5) // Vertex 107
    (-2.474873734152916 6.378646422048708 4.5) // Vertex 108
    (-4.5 5.153846153846153 4.5) // Vertex 109
    (-4.5 5.153846153846153 2.474873734152917) // Vertex 110
    (-4.5 5.153846153846153 1.3393920132778163) // Vertex 111
    (-1.688216466735447 7.562202550180999 0.08678241892119992) // Vertex 112
    (-1.5341788424625784 7.594950791668165 -0.6508773951226627) // Vertex 113
    (-1.1663619082631331 7.660064108574646 -1.3025134102106417) // Vertex 114
    (-0.6397411467403511 7.721898310240044 -1.7383406782002153) // Vertex 115
    (-0.02435441752431257 7.748315243384703 -1.8712215051106045) // Vertex 116
    (0.6007434020268559 7.725030072008905 -1.6761556410090461) // Vertex 117
    (1.1553472242597884 7.661733161623152 -1.1978270582391004) // Vertex 118
    (1.6348905867723444 7.573910153797963 -0.37558839998144494) // Vertex 119
    (1.7587866162360886 7.546101767606207 0.19805499957385864) // Vertex 120
    (1.4374782417598801 7.613845188404321 0.9962331384336249) // Vertex 121
    (1.1929394249507361 7.655970074191703 1.214261219483172) // Vertex 122
    (0.5722430271854143 7.727193550465679 1.5504126184176328) // Vertex 123
    (-0.12499318237033363 7.747345284217145 1.6972200730612326) // Vertex 124
    (-0.7842874680071052 7.708558582254383 1.6024867722700122) // Vertex 125
    (-1.3072353753632118 7.637284721805238 1.2560754336344606) // Vertex 126
    (-1.6197293320861041 7.5771669599726135 0.6957567391140655) // Vertex 127
    (-3.5 6.912812904203376 -0.0) // Vertex 128
    (-3.2335783637895035 7.041374383865206 -1.3393920132778143) // Vertex 129
    (-2.4748737341529163 7.342477936536187 -2.4748737341529163) // Vertex 130
    (-1.3393920132778145 7.631710901448528 -3.2335783637895035) // Vertex 131
    (-2.143131898507868e-16 7.748353518556101 -3.5) // Vertex 132
    (1.339392013277814 7.631710901448528 -3.2335783637895035) // Vertex 133
    (2.474873734152916 7.342477936536187 -2.4748737341529163) // Vertex 134
    (3.2335783637895035 7.041374383865206 -1.3393920132778145) // Vertex 135
    (3.5 6.912812904203376 -4.286263797015736e-16) // Vertex 136
    (3.4170360249197667 6.95419636283886 0.7575386487833603) // Vertex 137
    (2.474873734152917 7.342477936536187 2.474873734152916) // Vertex 138
    (1.339392013277816 7.631710901448528 3.233578363789503) // Vertex 139
    (6.429395695523604e-16 7.748353518556101 3.5) // Vertex 140
    (-1.339392013277815 7.631710901448528 3.233578363789503) // Vertex 141
    (-2.474873734152916 7.342477936536187 2.474873734152917) // Vertex 142
    (-3.233578363789503 7.041374383865206 1.3393920132778163) // Vertex 143
    (-4.5 6.3076923076923075 -0.0) // Vertex 144
    (-4.5 6.3076923076923075 -1.3393920132778143) // Vertex 145
    (-4.5 6.3076923076923075 -2.4748737341529163) // Vertex 146
    (-4.5 6.3076923076923075 -4.5) // Vertex 147
    (-2.4748737341529163 7.342477936536187 -4.5) // Vertex 148
    (-1.3393920132778145 7.631710901448528 -4.5) // Vertex 149
    (-2.143131898507868e-16 7.748353518556101 -4.5) // Vertex 150
    (1.339392013277814 7.631710901448528 -4.5) // Vertex 151
    (2.474873734152916 7.342477936536187 -4.5) // Vertex 152
    (4.5 6.3076923076923075 -4.5) // Vertex 153
    (4.5 6.3076923076923075 -2.4748737341529163) // Vertex 154
    (4.5 6.3076923076923075 -1.3393920132778145) // Vertex 155
    (4.5 6.3076923076923075 -4.286263797015736e-16) // Vertex 156
    (4.5 6.3076923076923075 0.7575386487833603) // Vertex 157
    (4.5 6.3076923076923075 2.474873734152916) // Vertex 158
    (4.5 6.3076923076923075 4.5) // Vertex 159
    (2.474873734152917 7.342477936536187 4.5) // Vertex 160
    (1.339392013277816 7.631710901448528 4.5) // Vertex 161
    (6.429395695523604e-16 7.748353518556101 4.5) // Vertex 162
    (-1.339392013277815 7.631710901448528 4.5) // Vertex 163
    (-2.474873734152916 7.342477936536187 4.5) // Vertex 164
    (-4.5 6.3076923076923075 4.5) // Vertex 165
    (-4.5 6.3076923076923075 2.474873734152917) // Vertex 166
    (-4.5 6.3076923076923075 1.3393920132778163) // Vertex 167
    (-1.6608399834910883 8.553722392166762 0.06828525687690143) // Vertex 168
    (-1.5093002666388609 8.58175791537734 -0.5121467075223692) // Vertex 169
    (-1.1474479313723795 8.637587594797925 -1.0248903396274769) // Vertex 170
    (-0.6293669659823994 8.690710755464588 -1.367823589455986) // Vertex 171
    (-0.02395948102391831 8.71343687394858 -1.4723816498602504) // Vertex 172
    (0.5910016171291231 8.69340401117816 -1.3188929271019625) // Vertex 173
    (1.1366118638663865 8.639020180780685 -0.9425172676994701) // Vertex 174
    (1.6083788475273875 8.563741804599449 -0.29553394214564893) // Vertex 175
    (1.7302657521890168 8.539949451830468 0.15584074159001957) // Vertex 176
    (1.4141677837853954 8.597946597433673 0.7838919059054176) // Vertex 177
    (1.1735944613028864 8.634073908266997 0.9554485841580125) // Vertex 178
    (0.5629634105283535 8.695264711981116 1.2199512900184273) // Vertex 179
    (-0.12296626589946336 8.712602109041162 1.3354675993861687) // Vertex 180
    (-0.7715692928502332 8.679241731818992 1.2609261443340904) // Vertex 181
    (-1.2860369638708353 8.618042999461979 0.9883503445597268) // Vertex 182
    (-1.5934634510252483 8.566529661611197 0.5474602833712111) // Vertex 183
    (-3.5 7.979633839532848 -0.0) // Vertex 184
    (-3.2335783637895035 8.091262397070691 -1.3393920132778143) // Vertex 185
    (-2.4748737341529163 8.354612870326054 -2.4748737341529163) // Vertex 186
    (-1.3393920132778145 8.609912034845962 -3.2335783637895035) // Vertex 187
    (-2.143131898507868e-16 8.713469814776301 -3.5) // Vertex 188
    (1.339392013277814 8.609912034845964 -3.2335783637895035) // Vertex 189
    (2.474873734152916 8.354612870326054 -2.4748737341529163) // Vertex 190
    (3.2335783637895035 8.091262397070691 -1.3393920132778145) // Vertex 191
    (3.5 7.979633839532848 -4.286263797015736e-16) // Vertex 192
    (3.4170360249197667 8.015511276108235 0.7575386487833603) // Vertex 193
    (2.474873734152917 8.354612870326054 2.474873734152916) // Vertex 194
    (1.339392013277816 8.609912034845962 3.233578363789503) // Vertex 195
    (6.429395695523604e-16 8.713469814776301 3.5) // Vertex 196
    (-1.339392013277815 8.609912034845962 3.233578363789503) // Vertex 197
    (-2.474873734152916 8.354612870326054 2.474873734152917) // Vertex 198
    (-3.233578363789503 8.091262397070691 1.3393920132778163) // Vertex 199
    (-4.5 7.461538461538462 -0.0) // Vertex 200
    (-4.5 7.461538461538462 -1.3393920132778143) // Vertex 201
    (-4.5 7.461538461538462 -2.4748737341529163) // Vertex 202
    (-4.5 7.461538461538462 -4.5) // Vertex 203
    (-2.4748737341529163 8.354612870326054 -4.5) // Vertex 204
    (-1.3393920132778145 8.609912034845962 -4.5) // Vertex 205
    (-2.143131898507868e-16 8.713469814776301 -4.5) // Vertex 206
    (1.339392013277814 8.609912034845964 -4.5) // Vertex 207
    (2.474873734152916 8.354612870326054 -4.5) // Vertex 208
    (4.5 7.461538461538462 -4.5) // Vertex 209
    (4.5 7.461538461538462 -2.4748737341529163) // Vertex 210
    (4.5 7.461538461538462 -1.3393920132778145) // Vertex 211
    (4.5 7.461538461538462 -4.286263797015736e-16) // Vertex 212
    (4.5 7.461538461538462 0.7575386487833603) // Vertex 213
    (4.5 7.461538461538462 2.474873734152916) // Vertex 214
    (4.5 7.461538461538462 4.5) // Vertex 215
    (2.474873734152917 8.354612870326054 4.5) // Vertex 216
    (1.339392013277816 8.609912034845962 4.5) // Vertex 217
    (6.429395695523604e-16 8.713469814776301 4.5) // Vertex 218
    (-1.339392013277815 8.609912034845962 4.5) // Vertex 219
    (-2.474873734152916 8.354612870326054 4.5) // Vertex 220
    (-4.5 7.461538461538462 4.5) // Vertex 221
    (-4.5 7.461538461538462 2.474873734152917) // Vertex 222
    (-4.5 7.461538461538462 1.3393920132778163) // Vertex 223
    (-1.6334635002467297 9.58157863112168 0.054168718465134776) // Vertex 224
    (-1.4844216908151435 9.605797432532263 -0.40627116425198984) // Vertex 225
    (-1.1285339544816262 9.65408013145675 -0.8130158515036158) // Vertex 226
    (-0.6189927852244478 9.700087628616867 -1.0850548759123817) // Vertex 227
    (-0.023564544523524054 9.719788926887626 -1.1679977598720819) // Vertex 228
    (0.5812598322313903 9.702421815116072 -1.0462395972623244) // Vertex 229
    (1.1178765034729845 9.655319994385941 -0.747671676985531) // Vertex 230
    (1.5818671082824305 9.590231932687557 -0.23443852511001217) // Vertex 231
    (1.7017448881419452 9.569687372463568 0.1236239510939458) // Vertex 232
    (1.3908573258109111 9.619790432761206 0.6218387672559532) // Vertex 233
    (1.1542494976550366 9.651039330982389 0.7579297161679728) // Vertex 234
    (0.5536837938712927 9.704034538655053 0.9677520594132796) // Vertex 235
    (-0.12093934942859308 9.719065065363319 1.0593878052017567) // Vertex 236
    (-0.7588511176933613 9.690149485543628 1.0002562257456444) // Vertex 237
    (-1.2648385523784589 9.637169475910605 0.7840297306911759) // Vertex 238
    (-1.5671975699643927 9.592640087468288 0.43428440218417613) // Vertex 239
    (-3.5 9.067792017410078 -0.0) // Vertex 240
    (-3.2335783637895035 9.166178213205235 -1.3393920132778143) // Vertex 241
    (-2.4748737341529163 9.399460201043777 -2.4748737341529163) // Vertex 242
    (-1.3393920132778145 9.627090999142654 -3.2335783637895035) // Vertex 243
    (-2.143131898507868e-16 9.71981749165106 -3.5) // Vertex 244
    (1.339392013277814 9.627090999142656 -3.2335783637895035) // Vertex 245
    (2.474873734152916 9.399460201043777 -2.4748737341529163) // Vertex 246
    (3.2335783637895035 9.166178213205235 -1.3393920132778145) // Vertex 247
    (3.5 9.067792017410078 -4.286263797015736e-16) // Vertex 248
    (3.4170360249197667 9.099380026980214 0.7575386487833603) // Vertex 249
    (2.474873734152917 9.399460201043777 2.474873734152916) // Vertex 250
    (1.339392013277816 9.627090999142654 3.233578363789503) // Vertex 251
    (6.429395695523604e-16 9.71981749165106 3.5) // Vertex 252
    (-1.339392013277815 9.627090999142654 3.233578363789503) // Vertex 253
    (-2.474873734152916 9.399460201043777 2.474873734152917) // Vertex 254
    (-3.233578363789503 9.166178213205235 1.3393920132778163) // Vertex 255
    (-4.5 8.615384615384615 -0.0) // Vertex 256
    (-4.5 8.615384615384615 -1.3393920132778143) // Vertex 257
    (-4.5 8.615384615384615 -2.4748737341529163) // Vertex 258
    (-4.5 8.615384615384615 -4.5) // Vertex 259
    (-2.4748737341529163 9.399460201043777 -4.5) // Vertex 260
    (-1.3393920132778145 9.627090999142654 -4.5) // Vertex 261
    (-2.143131898507868e-16 9.71981749165106 -4.5) // Vertex 262
    (1.339392013277814 9.627090999142656 -4.5) // Vertex 263
    (2.474873734152916 9.399460201043777 -4.5) // Vertex 264
    (4.5 8.615384615384615 -4.5) // Vertex 265
    (4.5 8.615384615384615 -2.4748737341529163) // Vertex 266
    (4.5 8.615384615384615 -1.3393920132778145) // Vertex 267
    (4.5 8.615384615384615 -4.286263797015736e-16) // Vertex 268
    (4.5 8.615384615384615 0.7575386487833603) // Vertex 269
    (4.5 8.615384615384615 2.474873734152916) // Vertex 270
    (4.5 8.615384615384615 4.5) // Vertex 271
    (2.474873734152917 9.399460201043777 4.5) // Vertex 272
    (1.339392013277816 9.627090999142654 4.5) // Vertex 273
    (6.429395695523604e-16 9.71981749165106 4.5) // Vertex 274
    (-1.339392013277815 9.627090999142654 4.5) // Vertex 275
    (-2.474873734152916 9.399460201043777 4.5) // Vertex 276
    (-4.5 8.615384615384615 4.5) // Vertex 277
    (-4.5 8.615384615384615 2.474873734152917) // Vertex 278
    (-4.5 8.615384615384615 1.3393920132778163) // Vertex 279
    (-1.606087017002371 10.635241149889437 0.04339535462404174) // Vertex 280
    (-1.459543114991426 10.656341009838522 -0.3254697867291246) // Vertex 281
    (-1.1096199775908726 10.69843976137719 -0.6513189196764004) // Vertex 282
    (-0.6086186044664962 10.738596426758127 -0.8692533709666794) // Vertex 283
    (-0.023169608023129798 10.755804618518749 -0.9357001314764118) // Vertex 284
    (0.5715180473336576 10.74063484827862 -0.838157882101932) // Vertex 285
    (1.0991411430795825 10.699521417805325 -0.5989707433455779) // Vertex 286
    (1.5553553690374737 10.64277874892133 -0.1878121399758498) // Vertex 287
    (1.6732240240948735 10.624885467038077 0.09903695988672719) // Vertex 288
    (1.3675468678364266 10.668537171831758 0.49816415430646843) // Vertex 289
    (1.1349045340071868 10.695787092176765 0.6071886089455532) // Vertex 290
    (0.5444041772142321 10.742043283952865 0.7752803646890096) // Vertex 291
    (-0.11891243295772282 10.75517222808511 0.848691104270914) // Vertex 292
    (-0.7461329425364893 10.729918706800486 0.8013199289378794) // Vertex 293
    (-1.2436401408860827 10.683689859896814 0.6280977132777156) // Vertex 294
    (-1.540931688903537 10.644876671555103 0.3479116023873134) // Vertex 295
    (-3.5 10.170440984661637 -0.0) // Vertex 296
    (-3.2335783637895035 10.258257200310274 -1.3393920132778143) // Vertex 297
    (-2.4748737341529163 10.467228373475242 -2.4748737341529163) // Vertex 298
    (-1.3393920132778145 10.672108454155287 -3.2335783637895035) // Vertex 299
    (-2.143131898507868e-16 10.755829573886208 -3.5) // Vertex 300
    (1.339392013277814 10.672108454155289 -3.2335783637895035) // Vertex 301
    (2.474873734152916 10.467228373475242 -2.4748737341529163) // Vertex 302
    (3.2335783637895035 10.258257200310274 -1.3393920132778145) // Vertex 303
    (3.5 10.170440984661637 -4.286263797015736e-16) // Vertex 304
    (3.4170360249197667 10.198614348375258 0.7575386487833603) // Vertex 305
    (2.474873734152917 10.467228373475242 2.474873734152916) // Vertex 306
    (1.339392013277816 10.672108454155287 3.233578363789503) // Vertex 307
    (6.429395695523604e-16 10.755829573886208 3.5) // Vertex 308
    (-1.339392013277815 10.672108454155287 3.233578363789503) // Vertex 309
    (-2.474873734152916 10.467228373475242 2.474873734152917) // Vertex 310
    (-3.233578363789503 10.258257200310274 1.3393920132778163) // Vertex 311
    (-4.5 9.769230769230768 -0.0) // Vertex 312
    (-4.5 9.769230769230768 -1.3393920132778143) // Vertex 313
    (-4.5 9.769230769230768 -2.4748737341529163) // Vertex 314
    (-4.5 9.769230769230768 -4.5) // Vertex 315
    (-2.4748737341529163 10.467228373475242 -4.5) // Vertex 316
    (-1.3393920132778145 10.672108454155287 -4.5) // Vertex 317
    (-2.143131898507868e-16 10.755829573886208 -4.5) // Vertex 318
    (1.339392013277814 10.672108454155289 -4.5) // Vertex 319
    (2.474873734152916 10.467228373475242 -4.5) // Vertex 320
    (4.5 9.769230769230768 -4.5) // Vertex 321
    (4.5 9.769230769230768 -2.4748737341529163) // Vertex 322
    (4.5 9.769230769230768 -1.3393920132778145) // Vertex 323
    (4.5 9.769230769230768 -4.286263797015736e-16) // Vertex 324
    (4.5 9.769230769230768 0.7575386487833603) // Vertex 325
    (4.5 9.769230769230768 2.474873734152916) // Vertex 326
    (4.5 9.769230769230768 4.5) // Vertex 327
    (2.474873734152917 10.467228373475242 4.5) // Vertex 328
    (1.339392013277816 10.672108454155287 4.5) // Vertex 329
    (6.429395695523604e-16 10.755829573886208 4.5) // Vertex 330
    (-1.339392013277815 10.672108454155287 4.5) // Vertex 331
    (-2.474873734152916 10.467228373475242 4.5) // Vertex 332
    (-4.5 9.769230769230768 4.5) // Vertex 333
    (-4.5 9.769230769230768 2.474873734152917) // Vertex 334
    (-4.5 9.769230769230768 1.3393920132778163) // Vertex 335
    (-1.5787105337580125 11.707744552989576 0.03517341202968547) // Vertex 336
    (-1.4346645391677084 11.726267399625097 -0.26380434060319996) // Vertex 337
    (-1.090706000700119 11.763246570887324 -0.5279161542285363) // Vertex 338
    (-0.5982444237085446 11.798547074829054 -0.7045594451316043) // Vertex 339
    (-0.02277467152273554 11.813682354871094 -0.7584168062637986) // Vertex 340
    (0.5617762624359247 11.800339694196058 -0.6793554929671413) // Vertex 341
    (1.0804057826861806 11.764197074692088 -0.4854861754660962) // Vertex 342
    (1.5288436297925168 11.71436070057169 -0.1522281322685101) // Vertex 343
    (1.6447031600478017 11.69865637510498 0.08027282704433504) // Vertex 344
    (1.344236409861942 11.736977376729373 0.40377900375847314) // Vertex 345
    (1.115559570359337 11.760915623897457 0.492147035257581) // Vertex 346
    (0.5351245605571712 11.801578333940935 0.6283911248561092) // Vertex 347
    (-0.11688551648685253 11.813126057208194 0.6878930280687571) // Vertex 348
    (-0.7334147673796173 11.790916514268309 0.6494970780239983) // Vertex 349
    (-1.2224417293937062 11.750287046948792 0.509094576030514) // Vertex 350
    (-1.5146658078426811 11.716202326607709 0.28199419607686405) // Vertex 351
    (-3.5 11.283333260497788 -0.0) // Vertex 352
    (-3.2335783637895035 11.362551669087715 -1.3393920132778143) // Vertex 353
    (-2.4748737341529163 11.551563074643 -2.4748737341529163) // Vertex 354
    (-1.3393920132778145 11.737531192811511 -3.2335783637895035) // Vertex 355
    (-2.143131898507868e-16 11.813704307602066 -3.5) // Vertex 356
    (1.339392013277814 11.737531192811511 -3.2335783637895035) // Vertex 357
    (2.474873734152916 11.551563074643 -2.4748737341529163) // Vertex 358
    (3.2335783637895035 11.362551669087715 -1.3393920132778145) // Vertex 359
    (3.5 11.283333260497788 -4.286263797015736e-16) // Vertex 360
    (3.4170360249197667 11.308734423968763 0.7575386487833603) // Vertex 361
    (2.474873734152917 11.551563074643 2.474873734152916) // Vertex 362
    (1.339392013277816 11.737531192811511 3.233578363789503) // Vertex 363
    (6.429395695523604e-16 11.813704307602066 3.5) // Vertex 364
    (-1.339392013277815 11.737531192811511 3.233578363789503) // Vertex 365
    (-2.474873734152916 11.551563074643 2.474873734152917) // Vertex 366
    (-3.233578363789503 11.362551669087715 1.3393920132778163) // Vertex 367
    (-4.5 10.923076923076923 -0.0) // Vertex 368
    (-4.5 10.923076923076923 -1.3393920132778143) // Vertex 369
    (-4.5 10.923076923076923 -2.4748737341529163) // Vertex 370
    (-4.5 10.923076923076923 -4.5) // Vertex 371
    (-2.4748737341529163 11.551563074643 -4.5) // Vertex 372
    (-1.3393920132778145 11.737531192811511 -4.5) // Vertex 373
    (-2.143131898507868e-16 11.813704307602066 -4.5) // Vertex 374
    (1.339392013277814 11.737531192811511 -4.5) // Vertex 375
    (2.474873734152916 11.551563074643 -4.5) // Vertex 376
    (4.5 10.923076923076923 -4.5) // Vertex 377
    (4.5 10.923076923076923 -2.4748737341529163) // Vertex 378
    (4.5 10.923076923076923 -1.3393920132778145) // Vertex 379
    (4.5 10.923076923076923 -4.286263797015736e-16) // Vertex 380
    (4.5 10.923076923076923 0.7575386487833603) // Vertex 381
    (4.5 10.923076923076923 2.474873734152916) // Vertex 382
    (4.5 10.923076923076923 4.5) // Vertex 383
    (2.474873734152917 11.551563074643 4.5) // Vertex 384
    (1.339392013277816 11.737531192811511 4.5) // Vertex 385
    (6.429395695523604e-16 11.813704307602066 4.5) // Vertex 386
    (-1.339392013277815 11.737531192811511 4.5) // Vertex 387
    (-2.474873734152916 11.551563074643 4.5) // Vertex 388
    (-4.5 10.923076923076923 4.5) // Vertex 389
    (-4.5 10.923076923076923 2.474873734152917) // Vertex 390
    (-4.5 10.923076923076923 1.3393920132778163) // Vertex 391
    (-1.5513340505136537 12.79435163146746 0.02889864576150833) // Vertex 392
    (-1.4097859633439909 12.810721078201468 -0.21674292454215272) // Vertex 393
    (-1.0717920238093654 12.843415934385048 -0.4337384704091983) // Vertex 394
    (-0.5878702429505929 12.874644833290366 -0.5788694541660924) // Vertex 395
    (-0.02237973502234128 12.888039810358187 -0.6231189230460334) // Vertex 396
    (0.5520344775381919 12.87623116216567 -0.5581617649383286) // Vertex 397
    (1.0616704222927784 12.844256573283866 -0.39887779425730197) // Vertex 398
    (1.5023318905475596 12.800198041302366 -0.12507137111551492) // Vertex 399
    (1.61618229600073 12.786321824199911 0.06595254367336419) // Vertex 400
    (1.3209259518874574 12.820188205933148 0.3317467860582532) // Vertex 401
    (1.096214606711487 12.841354466797865 0.40435038893815745) // Vertex 402
    (0.5258449439001104 12.87732728872307 0.5162891931429957) // Vertex 403
    (-0.11485860001598225 12.887547420200614 0.5651762451476926) // Vertex 404
    (-0.7206965922227453 12.867892889975252 0.5336299465377202) // Vertex 405
    (-1.2012433179013298 12.831955638059014 0.41827457055898976) // Vertex 406
    (-1.4883999267818253 12.801825520755742 0.23168779794092353) // Vertex 407
    (-3.5 12.403711984963095 -0.0) // Vertex 408
    (-3.2335783637895035 12.475818288639408 -1.3393920132778143) // Vertex 409
    (-2.4748737341529163 12.648204260127883 -2.4748737341529163) // Vertex 410
    (-1.3393920132778145 12.81827211603361 -3.2335783637895035) // Vertex 411
    (-2.143131898507868e-16 12.888059241247968 -3.5) // Vertex 412
    (1.339392013277814 12.81827211603361 -3.2335783637895035) // Vertex 413
    (2.474873734152916 12.648204260127883 -2.4748737341529163) // Vertex 414
    (3.2335783637895035 12.475818288639408 -1.3393920132778145) // Vertex 415
    (3.5 12.403711984963095 -4.286263797015736e-16) // Vertex 416
    (3.4170360249197667 12.426823238877974 0.7575386487833603) // Vertex 417
    (2.474873734152917 12.648204260127883 2.474873734152916) // Vertex 418
    (1.339392013277816 12.81827211603361 3.233578363789503) // Vertex 419
    (6.429395695523604e-16 12.888059241247968 3.5) // Vertex 420
    (-1.339392013277815 12.81827211603361 3.233578363789503) // Vertex 421
    (-2.474873734152916 12.648204260127883 2.474873734152917) // Vertex 422
    (-3.233578363789503 12.475818288639408 1.3393920132778163) // Vertex 423
    (-4.5 12.076923076923077 -0.0) // Vertex 424
    (-4.5 12.076923076923077 -1.3393920132778143) // Vertex 425
    (-4.5 12.076923076923077 -2.4748737341529163) // Vertex 426
    (-4.5 12.076923076923077 -4.5) // Vertex 427
    (-2.4748737341529163 12.648204260127883 -4.5) // Vertex 428
    (-1.3393920132778145 12.81827211603361 -4.5) // Vertex 429
    (-2.143131898507868e-16 12.888059241247968 -4.5) // Vertex 430
    (1.339392013277814 12.81827211603361 -4.5) // Vertex 431
    (2.474873734152916 12.648204260127883 -4.5) // Vertex 432
    (4.5 12.076923076923077 -4.5) // Vertex 433
    (4.5 12.076923076923077 -2.4748737341529163) // Vertex 434